*SPEF "ieee 1481-1999"
*DESIGN "TopModule"
*DATE "02:15:25 Sunday June 15, 2025"
*VENDOR "The OpenROAD Project"
*PROGRAM "OpenROAD"
*VERSION "edf00dff99f6c40d67a30c0e22a8191c5d2ed9d6"
*DESIGN_FLOW "NAME_SCOPE LOCAL" "PIN_CAP NONE"
*DIVIDER /
*DELIMITER :
*BUS_DELIMITER []
*T_UNIT 1 NS
*C_UNIT 1 PF
*R_UNIT 1 OHM
*L_UNIT 1 HENRY

*NAME_MAP
*3 clk
*4 ctrl[0]
*5 ctrl[1]
*6 data_out[0]
*7 net13
*8 net14
*9 net15
*10 net16
*11 net17
*12 net18
*13 net19
*14 net20
*15 net21
*16 net22
*17 data_out[1]
*18 net23
*19 net24
*20 net25
*21 net26
*22 net27
*23 net28
*24 net29
*25 net30
*26 net31
*27 net32
*28 data_out[2]
*29 net33
*30 net34
*31 data_out[3]
*32 net7
*33 net8
*34 net9
*35 net10
*36 net11
*37 net12
*38 reset
*39 _000_
*40 _001_
*41 _002_
*42 _003_
*43 _004_
*44 _005_
*45 _006_
*46 _007_
*47 _008_
*48 _009_
*49 _010_
*50 _011_
*51 _012_
*52 _013_
*53 _014_
*54 _015_
*55 _016_
*56 _017_
*57 _018_
*58 _019_
*59 _020_
*60 _021_
*61 _022_
*62 _023_
*63 _024_
*64 _025_
*65 _026_
*66 _027_
*67 _028_
*68 _029_
*69 aluop\[0\]
*70 aluop\[1\]
*71 aluop\[2\]
*72 clknet_0_clk
*73 clknet_1_0__leaf_clk
*74 clknet_1_1__leaf_clk
*75 instruction\[10\]
*76 instruction\[11\]
*77 instruction\[2\]
*78 instruction\[3\]
*79 instruction\[4\]
*80 instruction\[5\]
*81 instruction\[6\]
*82 instruction\[7\]
*83 instruction\[8\]
*84 instruction\[9\]
*85 net1
*86 net2
*87 net3
*88 net35
*89 net36
*90 net37
*91 net38
*92 net39
*93 net4
*94 net40
*95 net41
*96 net42
*97 net43
*98 net5
*99 net6
*100 u_pc\.next_pc\[10\]
*101 u_pc\.next_pc\[11\]
*102 u_pc\.next_pc\[12\]
*103 u_pc\.next_pc\[13\]
*104 u_pc\.next_pc\[14\]
*105 u_pc\.next_pc\[2\]
*106 u_pc\.next_pc\[3\]
*107 u_pc\.next_pc\[4\]
*108 u_pc\.next_pc\[5\]
*109 u_pc\.next_pc\[6\]
*110 u_pc\.next_pc\[7\]
*111 u_pc\.next_pc\[8\]
*112 u_pc\.next_pc\[9\]
*113 FILLER_0_109
*114 FILLER_0_113
*115 FILLER_0_125
*116 FILLER_0_137
*117 FILLER_0_141
*118 FILLER_0_15
*119 FILLER_0_153
*120 FILLER_0_165
*121 FILLER_0_169
*122 FILLER_0_181
*123 FILLER_0_193
*124 FILLER_0_197
*125 FILLER_0_209
*126 FILLER_0_221
*127 FILLER_0_228
*128 FILLER_0_234
*129 FILLER_0_246
*130 FILLER_0_253
*131 FILLER_0_265
*132 FILLER_0_27
*133 FILLER_0_277
*134 FILLER_0_281
*135 FILLER_0_29
*136 FILLER_0_293
*137 FILLER_0_3
*138 FILLER_0_305
*139 FILLER_0_309
*140 FILLER_0_321
*141 FILLER_0_333
*142 FILLER_0_337
*143 FILLER_0_346
*144 FILLER_0_358
*145 FILLER_0_365
*146 FILLER_0_377
*147 FILLER_0_389
*148 FILLER_0_393
*149 FILLER_0_405
*150 FILLER_0_41
*151 FILLER_0_417
*152 FILLER_0_421
*153 FILLER_0_433
*154 FILLER_0_437
*155 FILLER_0_444
*156 FILLER_0_449
*157 FILLER_0_461
*158 FILLER_0_465
*159 FILLER_0_473
*160 FILLER_0_477
*161 FILLER_0_489
*162 FILLER_0_501
*163 FILLER_0_505
*164 FILLER_0_517
*165 FILLER_0_529
*166 FILLER_0_53
*167 FILLER_0_533
*168 FILLER_0_545
*169 FILLER_0_549
*170 FILLER_0_557
*171 FILLER_0_561
*172 FILLER_0_57
*173 FILLER_0_573
*174 FILLER_0_585
*175 FILLER_0_589
*176 FILLER_0_601
*177 FILLER_0_612
*178 FILLER_0_617
*179 FILLER_0_626
*180 FILLER_0_638
*181 FILLER_0_645
*182 FILLER_0_657
*183 FILLER_0_669
*184 FILLER_0_673
*185 FILLER_0_685
*186 FILLER_0_69
*187 FILLER_0_697
*188 FILLER_0_701
*189 FILLER_0_713
*190 FILLER_0_725
*191 FILLER_0_729
*192 FILLER_0_741
*193 FILLER_0_753
*194 FILLER_0_757
*195 FILLER_0_769
*196 FILLER_0_781
*197 FILLER_0_785
*198 FILLER_0_797
*199 FILLER_0_809
*200 FILLER_0_81
*201 FILLER_0_813
*202 FILLER_0_821
*203 FILLER_0_85
*204 FILLER_0_97
*205 FILLER_100_109
*206 FILLER_100_121
*207 FILLER_100_133
*208 FILLER_100_139
*209 FILLER_100_141
*210 FILLER_100_15
*211 FILLER_100_153
*212 FILLER_100_165
*213 FILLER_100_177
*214 FILLER_100_189
*215 FILLER_100_195
*216 FILLER_100_197
*217 FILLER_100_209
*218 FILLER_100_221
*219 FILLER_100_233
*220 FILLER_100_245
*221 FILLER_100_251
*222 FILLER_100_253
*223 FILLER_100_265
*224 FILLER_100_27
*225 FILLER_100_277
*226 FILLER_100_289
*227 FILLER_100_29
*228 FILLER_100_3
*229 FILLER_100_301
*230 FILLER_100_307
*231 FILLER_100_309
*232 FILLER_100_321
*233 FILLER_100_333
*234 FILLER_100_345
*235 FILLER_100_357
*236 FILLER_100_363
*237 FILLER_100_365
*238 FILLER_100_377
*239 FILLER_100_389
*240 FILLER_100_401
*241 FILLER_100_41
*242 FILLER_100_413
*243 FILLER_100_419
*244 FILLER_100_421
*245 FILLER_100_433
*246 FILLER_100_445
*247 FILLER_100_457
*248 FILLER_100_469
*249 FILLER_100_475
*250 FILLER_100_477
*251 FILLER_100_489
*252 FILLER_100_501
*253 FILLER_100_513
*254 FILLER_100_525
*255 FILLER_100_53
*256 FILLER_100_531
*257 FILLER_100_533
*258 FILLER_100_545
*259 FILLER_100_557
*260 FILLER_100_569
*261 FILLER_100_581
*262 FILLER_100_587
*263 FILLER_100_589
*264 FILLER_100_601
*265 FILLER_100_613
*266 FILLER_100_625
*267 FILLER_100_637
*268 FILLER_100_643
*269 FILLER_100_645
*270 FILLER_100_65
*271 FILLER_100_657
*272 FILLER_100_669
*273 FILLER_100_681
*274 FILLER_100_693
*275 FILLER_100_699
*276 FILLER_100_701
*277 FILLER_100_713
*278 FILLER_100_725
*279 FILLER_100_737
*280 FILLER_100_749
*281 FILLER_100_755
*282 FILLER_100_757
*283 FILLER_100_769
*284 FILLER_100_77
*285 FILLER_100_781
*286 FILLER_100_793
*287 FILLER_100_805
*288 FILLER_100_811
*289 FILLER_100_813
*290 FILLER_100_821
*291 FILLER_100_83
*292 FILLER_100_85
*293 FILLER_100_97
*294 FILLER_101_105
*295 FILLER_101_111
*296 FILLER_101_113
*297 FILLER_101_125
*298 FILLER_101_137
*299 FILLER_101_149
*300 FILLER_101_15
*301 FILLER_101_161
*302 FILLER_101_167
*303 FILLER_101_169
*304 FILLER_101_181
*305 FILLER_101_193
*306 FILLER_101_205
*307 FILLER_101_217
*308 FILLER_101_223
*309 FILLER_101_225
*310 FILLER_101_237
*311 FILLER_101_249
*312 FILLER_101_261
*313 FILLER_101_27
*314 FILLER_101_273
*315 FILLER_101_279
*316 FILLER_101_281
*317 FILLER_101_293
*318 FILLER_101_3
*319 FILLER_101_305
*320 FILLER_101_317
*321 FILLER_101_329
*322 FILLER_101_335
*323 FILLER_101_337
*324 FILLER_101_349
*325 FILLER_101_361
*326 FILLER_101_373
*327 FILLER_101_385
*328 FILLER_101_39
*329 FILLER_101_391
*330 FILLER_101_393
*331 FILLER_101_405
*332 FILLER_101_417
*333 FILLER_101_429
*334 FILLER_101_441
*335 FILLER_101_447
*336 FILLER_101_449
*337 FILLER_101_461
*338 FILLER_101_473
*339 FILLER_101_485
*340 FILLER_101_497
*341 FILLER_101_503
*342 FILLER_101_505
*343 FILLER_101_51
*344 FILLER_101_517
*345 FILLER_101_529
*346 FILLER_101_541
*347 FILLER_101_55
*348 FILLER_101_553
*349 FILLER_101_559
*350 FILLER_101_561
*351 FILLER_101_57
*352 FILLER_101_573
*353 FILLER_101_585
*354 FILLER_101_597
*355 FILLER_101_609
*356 FILLER_101_615
*357 FILLER_101_617
*358 FILLER_101_629
*359 FILLER_101_641
*360 FILLER_101_653
*361 FILLER_101_665
*362 FILLER_101_671
*363 FILLER_101_673
*364 FILLER_101_685
*365 FILLER_101_69
*366 FILLER_101_697
*367 FILLER_101_709
*368 FILLER_101_721
*369 FILLER_101_727
*370 FILLER_101_729
*371 FILLER_101_741
*372 FILLER_101_753
*373 FILLER_101_765
*374 FILLER_101_777
*375 FILLER_101_783
*376 FILLER_101_785
*377 FILLER_101_797
*378 FILLER_101_809
*379 FILLER_101_81
*380 FILLER_101_821
*381 FILLER_101_93
*382 FILLER_102_109
*383 FILLER_102_121
*384 FILLER_102_133
*385 FILLER_102_139
*386 FILLER_102_141
*387 FILLER_102_15
*388 FILLER_102_153
*389 FILLER_102_165
*390 FILLER_102_177
*391 FILLER_102_189
*392 FILLER_102_195
*393 FILLER_102_197
*394 FILLER_102_209
*395 FILLER_102_221
*396 FILLER_102_233
*397 FILLER_102_245
*398 FILLER_102_251
*399 FILLER_102_253
*400 FILLER_102_265
*401 FILLER_102_27
*402 FILLER_102_277
*403 FILLER_102_289
*404 FILLER_102_29
*405 FILLER_102_3
*406 FILLER_102_301
*407 FILLER_102_307
*408 FILLER_102_309
*409 FILLER_102_321
*410 FILLER_102_333
*411 FILLER_102_345
*412 FILLER_102_357
*413 FILLER_102_363
*414 FILLER_102_365
*415 FILLER_102_377
*416 FILLER_102_389
*417 FILLER_102_401
*418 FILLER_102_41
*419 FILLER_102_413
*420 FILLER_102_419
*421 FILLER_102_421
*422 FILLER_102_433
*423 FILLER_102_445
*424 FILLER_102_457
*425 FILLER_102_469
*426 FILLER_102_475
*427 FILLER_102_477
*428 FILLER_102_489
*429 FILLER_102_501
*430 FILLER_102_513
*431 FILLER_102_525
*432 FILLER_102_53
*433 FILLER_102_531
*434 FILLER_102_533
*435 FILLER_102_545
*436 FILLER_102_557
*437 FILLER_102_569
*438 FILLER_102_581
*439 FILLER_102_587
*440 FILLER_102_589
*441 FILLER_102_601
*442 FILLER_102_613
*443 FILLER_102_625
*444 FILLER_102_637
*445 FILLER_102_643
*446 FILLER_102_645
*447 FILLER_102_65
*448 FILLER_102_657
*449 FILLER_102_669
*450 FILLER_102_681
*451 FILLER_102_693
*452 FILLER_102_699
*453 FILLER_102_701
*454 FILLER_102_713
*455 FILLER_102_725
*456 FILLER_102_737
*457 FILLER_102_749
*458 FILLER_102_755
*459 FILLER_102_757
*460 FILLER_102_769
*461 FILLER_102_77
*462 FILLER_102_781
*463 FILLER_102_793
*464 FILLER_102_805
*465 FILLER_102_811
*466 FILLER_102_813
*467 FILLER_102_821
*468 FILLER_102_83
*469 FILLER_102_85
*470 FILLER_102_97
*471 FILLER_103_105
*472 FILLER_103_111
*473 FILLER_103_113
*474 FILLER_103_125
*475 FILLER_103_137
*476 FILLER_103_149
*477 FILLER_103_15
*478 FILLER_103_161
*479 FILLER_103_167
*480 FILLER_103_169
*481 FILLER_103_181
*482 FILLER_103_193
*483 FILLER_103_205
*484 FILLER_103_217
*485 FILLER_103_223
*486 FILLER_103_225
*487 FILLER_103_237
*488 FILLER_103_249
*489 FILLER_103_261
*490 FILLER_103_27
*491 FILLER_103_273
*492 FILLER_103_279
*493 FILLER_103_281
*494 FILLER_103_293
*495 FILLER_103_3
*496 FILLER_103_305
*497 FILLER_103_317
*498 FILLER_103_329
*499 FILLER_103_335
*500 FILLER_103_337
*501 FILLER_103_349
*502 FILLER_103_361
*503 FILLER_103_373
*504 FILLER_103_385
*505 FILLER_103_39
*506 FILLER_103_391
*507 FILLER_103_393
*508 FILLER_103_405
*509 FILLER_103_417
*510 FILLER_103_429
*511 FILLER_103_441
*512 FILLER_103_447
*513 FILLER_103_449
*514 FILLER_103_461
*515 FILLER_103_473
*516 FILLER_103_485
*517 FILLER_103_497
*518 FILLER_103_503
*519 FILLER_103_505
*520 FILLER_103_51
*521 FILLER_103_517
*522 FILLER_103_529
*523 FILLER_103_541
*524 FILLER_103_55
*525 FILLER_103_553
*526 FILLER_103_559
*527 FILLER_103_561
*528 FILLER_103_57
*529 FILLER_103_573
*530 FILLER_103_585
*531 FILLER_103_597
*532 FILLER_103_609
*533 FILLER_103_615
*534 FILLER_103_617
*535 FILLER_103_629
*536 FILLER_103_641
*537 FILLER_103_653
*538 FILLER_103_665
*539 FILLER_103_671
*540 FILLER_103_673
*541 FILLER_103_685
*542 FILLER_103_69
*543 FILLER_103_697
*544 FILLER_103_709
*545 FILLER_103_721
*546 FILLER_103_727
*547 FILLER_103_729
*548 FILLER_103_741
*549 FILLER_103_753
*550 FILLER_103_765
*551 FILLER_103_777
*552 FILLER_103_783
*553 FILLER_103_785
*554 FILLER_103_797
*555 FILLER_103_809
*556 FILLER_103_81
*557 FILLER_103_821
*558 FILLER_103_93
*559 FILLER_104_109
*560 FILLER_104_121
*561 FILLER_104_133
*562 FILLER_104_139
*563 FILLER_104_141
*564 FILLER_104_15
*565 FILLER_104_153
*566 FILLER_104_165
*567 FILLER_104_177
*568 FILLER_104_189
*569 FILLER_104_195
*570 FILLER_104_197
*571 FILLER_104_209
*572 FILLER_104_221
*573 FILLER_104_233
*574 FILLER_104_245
*575 FILLER_104_251
*576 FILLER_104_253
*577 FILLER_104_265
*578 FILLER_104_27
*579 FILLER_104_277
*580 FILLER_104_289
*581 FILLER_104_29
*582 FILLER_104_3
*583 FILLER_104_301
*584 FILLER_104_307
*585 FILLER_104_309
*586 FILLER_104_321
*587 FILLER_104_333
*588 FILLER_104_345
*589 FILLER_104_357
*590 FILLER_104_363
*591 FILLER_104_365
*592 FILLER_104_377
*593 FILLER_104_389
*594 FILLER_104_401
*595 FILLER_104_41
*596 FILLER_104_413
*597 FILLER_104_419
*598 FILLER_104_421
*599 FILLER_104_433
*600 FILLER_104_445
*601 FILLER_104_457
*602 FILLER_104_469
*603 FILLER_104_475
*604 FILLER_104_477
*605 FILLER_104_489
*606 FILLER_104_501
*607 FILLER_104_513
*608 FILLER_104_525
*609 FILLER_104_53
*610 FILLER_104_531
*611 FILLER_104_533
*612 FILLER_104_545
*613 FILLER_104_557
*614 FILLER_104_569
*615 FILLER_104_581
*616 FILLER_104_587
*617 FILLER_104_589
*618 FILLER_104_601
*619 FILLER_104_613
*620 FILLER_104_625
*621 FILLER_104_637
*622 FILLER_104_643
*623 FILLER_104_645
*624 FILLER_104_65
*625 FILLER_104_657
*626 FILLER_104_669
*627 FILLER_104_681
*628 FILLER_104_693
*629 FILLER_104_699
*630 FILLER_104_701
*631 FILLER_104_713
*632 FILLER_104_725
*633 FILLER_104_737
*634 FILLER_104_749
*635 FILLER_104_755
*636 FILLER_104_757
*637 FILLER_104_769
*638 FILLER_104_77
*639 FILLER_104_781
*640 FILLER_104_793
*641 FILLER_104_805
*642 FILLER_104_811
*643 FILLER_104_813
*644 FILLER_104_821
*645 FILLER_104_83
*646 FILLER_104_85
*647 FILLER_104_97
*648 FILLER_105_105
*649 FILLER_105_111
*650 FILLER_105_113
*651 FILLER_105_125
*652 FILLER_105_137
*653 FILLER_105_149
*654 FILLER_105_15
*655 FILLER_105_161
*656 FILLER_105_167
*657 FILLER_105_169
*658 FILLER_105_181
*659 FILLER_105_193
*660 FILLER_105_205
*661 FILLER_105_217
*662 FILLER_105_223
*663 FILLER_105_225
*664 FILLER_105_237
*665 FILLER_105_249
*666 FILLER_105_261
*667 FILLER_105_27
*668 FILLER_105_273
*669 FILLER_105_279
*670 FILLER_105_281
*671 FILLER_105_293
*672 FILLER_105_3
*673 FILLER_105_305
*674 FILLER_105_317
*675 FILLER_105_329
*676 FILLER_105_335
*677 FILLER_105_337
*678 FILLER_105_349
*679 FILLER_105_361
*680 FILLER_105_373
*681 FILLER_105_385
*682 FILLER_105_39
*683 FILLER_105_391
*684 FILLER_105_393
*685 FILLER_105_405
*686 FILLER_105_417
*687 FILLER_105_429
*688 FILLER_105_441
*689 FILLER_105_447
*690 FILLER_105_449
*691 FILLER_105_461
*692 FILLER_105_473
*693 FILLER_105_485
*694 FILLER_105_497
*695 FILLER_105_503
*696 FILLER_105_505
*697 FILLER_105_51
*698 FILLER_105_517
*699 FILLER_105_529
*700 FILLER_105_541
*701 FILLER_105_55
*702 FILLER_105_553
*703 FILLER_105_559
*704 FILLER_105_561
*705 FILLER_105_57
*706 FILLER_105_573
*707 FILLER_105_585
*708 FILLER_105_597
*709 FILLER_105_609
*710 FILLER_105_615
*711 FILLER_105_617
*712 FILLER_105_629
*713 FILLER_105_641
*714 FILLER_105_653
*715 FILLER_105_665
*716 FILLER_105_671
*717 FILLER_105_673
*718 FILLER_105_685
*719 FILLER_105_69
*720 FILLER_105_697
*721 FILLER_105_709
*722 FILLER_105_721
*723 FILLER_105_727
*724 FILLER_105_729
*725 FILLER_105_741
*726 FILLER_105_753
*727 FILLER_105_765
*728 FILLER_105_777
*729 FILLER_105_783
*730 FILLER_105_785
*731 FILLER_105_797
*732 FILLER_105_809
*733 FILLER_105_81
*734 FILLER_105_821
*735 FILLER_105_93
*736 FILLER_106_109
*737 FILLER_106_121
*738 FILLER_106_133
*739 FILLER_106_139
*740 FILLER_106_141
*741 FILLER_106_15
*742 FILLER_106_153
*743 FILLER_106_165
*744 FILLER_106_177
*745 FILLER_106_189
*746 FILLER_106_195
*747 FILLER_106_197
*748 FILLER_106_209
*749 FILLER_106_221
*750 FILLER_106_233
*751 FILLER_106_245
*752 FILLER_106_251
*753 FILLER_106_253
*754 FILLER_106_265
*755 FILLER_106_27
*756 FILLER_106_277
*757 FILLER_106_289
*758 FILLER_106_29
*759 FILLER_106_3
*760 FILLER_106_301
*761 FILLER_106_307
*762 FILLER_106_309
*763 FILLER_106_321
*764 FILLER_106_333
*765 FILLER_106_345
*766 FILLER_106_357
*767 FILLER_106_363
*768 FILLER_106_365
*769 FILLER_106_377
*770 FILLER_106_389
*771 FILLER_106_401
*772 FILLER_106_41
*773 FILLER_106_413
*774 FILLER_106_419
*775 FILLER_106_421
*776 FILLER_106_433
*777 FILLER_106_445
*778 FILLER_106_457
*779 FILLER_106_469
*780 FILLER_106_475
*781 FILLER_106_477
*782 FILLER_106_489
*783 FILLER_106_501
*784 FILLER_106_513
*785 FILLER_106_525
*786 FILLER_106_53
*787 FILLER_106_531
*788 FILLER_106_533
*789 FILLER_106_545
*790 FILLER_106_557
*791 FILLER_106_569
*792 FILLER_106_581
*793 FILLER_106_587
*794 FILLER_106_589
*795 FILLER_106_601
*796 FILLER_106_613
*797 FILLER_106_625
*798 FILLER_106_637
*799 FILLER_106_643
*800 FILLER_106_645
*801 FILLER_106_65
*802 FILLER_106_657
*803 FILLER_106_669
*804 FILLER_106_681
*805 FILLER_106_693
*806 FILLER_106_699
*807 FILLER_106_701
*808 FILLER_106_713
*809 FILLER_106_725
*810 FILLER_106_737
*811 FILLER_106_749
*812 FILLER_106_755
*813 FILLER_106_757
*814 FILLER_106_769
*815 FILLER_106_77
*816 FILLER_106_781
*817 FILLER_106_793
*818 FILLER_106_805
*819 FILLER_106_811
*820 FILLER_106_813
*821 FILLER_106_821
*822 FILLER_106_83
*823 FILLER_106_85
*824 FILLER_106_97
*825 FILLER_107_105
*826 FILLER_107_111
*827 FILLER_107_113
*828 FILLER_107_125
*829 FILLER_107_137
*830 FILLER_107_149
*831 FILLER_107_15
*832 FILLER_107_161
*833 FILLER_107_167
*834 FILLER_107_169
*835 FILLER_107_181
*836 FILLER_107_193
*837 FILLER_107_205
*838 FILLER_107_217
*839 FILLER_107_223
*840 FILLER_107_225
*841 FILLER_107_237
*842 FILLER_107_249
*843 FILLER_107_261
*844 FILLER_107_27
*845 FILLER_107_273
*846 FILLER_107_279
*847 FILLER_107_281
*848 FILLER_107_293
*849 FILLER_107_3
*850 FILLER_107_305
*851 FILLER_107_317
*852 FILLER_107_329
*853 FILLER_107_335
*854 FILLER_107_337
*855 FILLER_107_349
*856 FILLER_107_361
*857 FILLER_107_373
*858 FILLER_107_385
*859 FILLER_107_39
*860 FILLER_107_391
*861 FILLER_107_393
*862 FILLER_107_405
*863 FILLER_107_417
*864 FILLER_107_429
*865 FILLER_107_441
*866 FILLER_107_447
*867 FILLER_107_449
*868 FILLER_107_461
*869 FILLER_107_473
*870 FILLER_107_485
*871 FILLER_107_497
*872 FILLER_107_503
*873 FILLER_107_505
*874 FILLER_107_51
*875 FILLER_107_517
*876 FILLER_107_529
*877 FILLER_107_541
*878 FILLER_107_55
*879 FILLER_107_553
*880 FILLER_107_559
*881 FILLER_107_561
*882 FILLER_107_57
*883 FILLER_107_573
*884 FILLER_107_585
*885 FILLER_107_597
*886 FILLER_107_609
*887 FILLER_107_615
*888 FILLER_107_617
*889 FILLER_107_629
*890 FILLER_107_641
*891 FILLER_107_653
*892 FILLER_107_665
*893 FILLER_107_671
*894 FILLER_107_673
*895 FILLER_107_685
*896 FILLER_107_69
*897 FILLER_107_697
*898 FILLER_107_709
*899 FILLER_107_721
*900 FILLER_107_727
*901 FILLER_107_729
*902 FILLER_107_741
*903 FILLER_107_753
*904 FILLER_107_765
*905 FILLER_107_777
*906 FILLER_107_783
*907 FILLER_107_785
*908 FILLER_107_797
*909 FILLER_107_809
*910 FILLER_107_81
*911 FILLER_107_821
*912 FILLER_107_93
*913 FILLER_108_109
*914 FILLER_108_121
*915 FILLER_108_133
*916 FILLER_108_139
*917 FILLER_108_141
*918 FILLER_108_15
*919 FILLER_108_153
*920 FILLER_108_165
*921 FILLER_108_177
*922 FILLER_108_189
*923 FILLER_108_195
*924 FILLER_108_197
*925 FILLER_108_209
*926 FILLER_108_221
*927 FILLER_108_233
*928 FILLER_108_245
*929 FILLER_108_251
*930 FILLER_108_253
*931 FILLER_108_265
*932 FILLER_108_27
*933 FILLER_108_277
*934 FILLER_108_289
*935 FILLER_108_29
*936 FILLER_108_3
*937 FILLER_108_301
*938 FILLER_108_307
*939 FILLER_108_309
*940 FILLER_108_321
*941 FILLER_108_333
*942 FILLER_108_345
*943 FILLER_108_357
*944 FILLER_108_363
*945 FILLER_108_365
*946 FILLER_108_377
*947 FILLER_108_389
*948 FILLER_108_401
*949 FILLER_108_41
*950 FILLER_108_413
*951 FILLER_108_419
*952 FILLER_108_421
*953 FILLER_108_433
*954 FILLER_108_445
*955 FILLER_108_457
*956 FILLER_108_469
*957 FILLER_108_475
*958 FILLER_108_477
*959 FILLER_108_489
*960 FILLER_108_501
*961 FILLER_108_513
*962 FILLER_108_525
*963 FILLER_108_53
*964 FILLER_108_531
*965 FILLER_108_533
*966 FILLER_108_545
*967 FILLER_108_557
*968 FILLER_108_569
*969 FILLER_108_581
*970 FILLER_108_587
*971 FILLER_108_589
*972 FILLER_108_601
*973 FILLER_108_613
*974 FILLER_108_625
*975 FILLER_108_637
*976 FILLER_108_643
*977 FILLER_108_645
*978 FILLER_108_65
*979 FILLER_108_657
*980 FILLER_108_669
*981 FILLER_108_681
*982 FILLER_108_693
*983 FILLER_108_699
*984 FILLER_108_701
*985 FILLER_108_713
*986 FILLER_108_725
*987 FILLER_108_737
*988 FILLER_108_749
*989 FILLER_108_755
*990 FILLER_108_757
*991 FILLER_108_769
*992 FILLER_108_77
*993 FILLER_108_781
*994 FILLER_108_793
*995 FILLER_108_805
*996 FILLER_108_811
*997 FILLER_108_813
*998 FILLER_108_821
*999 FILLER_108_83
*1000 FILLER_108_85
*1001 FILLER_108_97
*1002 FILLER_109_105
*1003 FILLER_109_111
*1004 FILLER_109_113
*1005 FILLER_109_125
*1006 FILLER_109_137
*1007 FILLER_109_149
*1008 FILLER_109_15
*1009 FILLER_109_161
*1010 FILLER_109_167
*1011 FILLER_109_169
*1012 FILLER_109_181
*1013 FILLER_109_193
*1014 FILLER_109_205
*1015 FILLER_109_217
*1016 FILLER_109_223
*1017 FILLER_109_225
*1018 FILLER_109_237
*1019 FILLER_109_249
*1020 FILLER_109_261
*1021 FILLER_109_27
*1022 FILLER_109_273
*1023 FILLER_109_279
*1024 FILLER_109_281
*1025 FILLER_109_293
*1026 FILLER_109_3
*1027 FILLER_109_305
*1028 FILLER_109_317
*1029 FILLER_109_329
*1030 FILLER_109_335
*1031 FILLER_109_337
*1032 FILLER_109_349
*1033 FILLER_109_361
*1034 FILLER_109_373
*1035 FILLER_109_385
*1036 FILLER_109_39
*1037 FILLER_109_391
*1038 FILLER_109_393
*1039 FILLER_109_405
*1040 FILLER_109_417
*1041 FILLER_109_429
*1042 FILLER_109_441
*1043 FILLER_109_447
*1044 FILLER_109_449
*1045 FILLER_109_461
*1046 FILLER_109_473
*1047 FILLER_109_485
*1048 FILLER_109_497
*1049 FILLER_109_503
*1050 FILLER_109_505
*1051 FILLER_109_51
*1052 FILLER_109_517
*1053 FILLER_109_529
*1054 FILLER_109_541
*1055 FILLER_109_55
*1056 FILLER_109_553
*1057 FILLER_109_559
*1058 FILLER_109_561
*1059 FILLER_109_57
*1060 FILLER_109_573
*1061 FILLER_109_585
*1062 FILLER_109_597
*1063 FILLER_109_609
*1064 FILLER_109_615
*1065 FILLER_109_617
*1066 FILLER_109_629
*1067 FILLER_109_641
*1068 FILLER_109_653
*1069 FILLER_109_665
*1070 FILLER_109_671
*1071 FILLER_109_673
*1072 FILLER_109_685
*1073 FILLER_109_69
*1074 FILLER_109_697
*1075 FILLER_109_709
*1076 FILLER_109_721
*1077 FILLER_109_727
*1078 FILLER_109_729
*1079 FILLER_109_741
*1080 FILLER_109_753
*1081 FILLER_109_765
*1082 FILLER_109_777
*1083 FILLER_109_783
*1084 FILLER_109_785
*1085 FILLER_109_797
*1086 FILLER_109_809
*1087 FILLER_109_81
*1088 FILLER_109_821
*1089 FILLER_109_93
*1090 FILLER_10_109
*1091 FILLER_10_121
*1092 FILLER_10_133
*1093 FILLER_10_139
*1094 FILLER_10_141
*1095 FILLER_10_15
*1096 FILLER_10_153
*1097 FILLER_10_165
*1098 FILLER_10_177
*1099 FILLER_10_189
*1100 FILLER_10_195
*1101 FILLER_10_197
*1102 FILLER_10_209
*1103 FILLER_10_221
*1104 FILLER_10_233
*1105 FILLER_10_245
*1106 FILLER_10_251
*1107 FILLER_10_253
*1108 FILLER_10_265
*1109 FILLER_10_27
*1110 FILLER_10_277
*1111 FILLER_10_289
*1112 FILLER_10_29
*1113 FILLER_10_3
*1114 FILLER_10_301
*1115 FILLER_10_307
*1116 FILLER_10_309
*1117 FILLER_10_321
*1118 FILLER_10_333
*1119 FILLER_10_345
*1120 FILLER_10_357
*1121 FILLER_10_363
*1122 FILLER_10_365
*1123 FILLER_10_377
*1124 FILLER_10_389
*1125 FILLER_10_401
*1126 FILLER_10_41
*1127 FILLER_10_413
*1128 FILLER_10_419
*1129 FILLER_10_421
*1130 FILLER_10_433
*1131 FILLER_10_445
*1132 FILLER_10_457
*1133 FILLER_10_469
*1134 FILLER_10_475
*1135 FILLER_10_477
*1136 FILLER_10_489
*1137 FILLER_10_501
*1138 FILLER_10_513
*1139 FILLER_10_525
*1140 FILLER_10_53
*1141 FILLER_10_531
*1142 FILLER_10_533
*1143 FILLER_10_545
*1144 FILLER_10_557
*1145 FILLER_10_569
*1146 FILLER_10_581
*1147 FILLER_10_587
*1148 FILLER_10_589
*1149 FILLER_10_601
*1150 FILLER_10_613
*1151 FILLER_10_625
*1152 FILLER_10_637
*1153 FILLER_10_643
*1154 FILLER_10_645
*1155 FILLER_10_65
*1156 FILLER_10_657
*1157 FILLER_10_669
*1158 FILLER_10_681
*1159 FILLER_10_693
*1160 FILLER_10_699
*1161 FILLER_10_701
*1162 FILLER_10_713
*1163 FILLER_10_725
*1164 FILLER_10_737
*1165 FILLER_10_749
*1166 FILLER_10_755
*1167 FILLER_10_757
*1168 FILLER_10_769
*1169 FILLER_10_77
*1170 FILLER_10_781
*1171 FILLER_10_793
*1172 FILLER_10_805
*1173 FILLER_10_811
*1174 FILLER_10_813
*1175 FILLER_10_821
*1176 FILLER_10_83
*1177 FILLER_10_85
*1178 FILLER_10_97
*1179 FILLER_110_109
*1180 FILLER_110_121
*1181 FILLER_110_133
*1182 FILLER_110_139
*1183 FILLER_110_141
*1184 FILLER_110_15
*1185 FILLER_110_153
*1186 FILLER_110_165
*1187 FILLER_110_177
*1188 FILLER_110_189
*1189 FILLER_110_195
*1190 FILLER_110_197
*1191 FILLER_110_209
*1192 FILLER_110_221
*1193 FILLER_110_233
*1194 FILLER_110_245
*1195 FILLER_110_251
*1196 FILLER_110_253
*1197 FILLER_110_265
*1198 FILLER_110_27
*1199 FILLER_110_277
*1200 FILLER_110_289
*1201 FILLER_110_29
*1202 FILLER_110_3
*1203 FILLER_110_301
*1204 FILLER_110_307
*1205 FILLER_110_309
*1206 FILLER_110_321
*1207 FILLER_110_333
*1208 FILLER_110_345
*1209 FILLER_110_357
*1210 FILLER_110_363
*1211 FILLER_110_365
*1212 FILLER_110_377
*1213 FILLER_110_389
*1214 FILLER_110_401
*1215 FILLER_110_41
*1216 FILLER_110_413
*1217 FILLER_110_419
*1218 FILLER_110_421
*1219 FILLER_110_433
*1220 FILLER_110_445
*1221 FILLER_110_457
*1222 FILLER_110_469
*1223 FILLER_110_475
*1224 FILLER_110_477
*1225 FILLER_110_489
*1226 FILLER_110_501
*1227 FILLER_110_513
*1228 FILLER_110_525
*1229 FILLER_110_53
*1230 FILLER_110_531
*1231 FILLER_110_533
*1232 FILLER_110_545
*1233 FILLER_110_557
*1234 FILLER_110_569
*1235 FILLER_110_581
*1236 FILLER_110_587
*1237 FILLER_110_589
*1238 FILLER_110_601
*1239 FILLER_110_613
*1240 FILLER_110_625
*1241 FILLER_110_637
*1242 FILLER_110_643
*1243 FILLER_110_645
*1244 FILLER_110_65
*1245 FILLER_110_657
*1246 FILLER_110_669
*1247 FILLER_110_681
*1248 FILLER_110_693
*1249 FILLER_110_699
*1250 FILLER_110_701
*1251 FILLER_110_713
*1252 FILLER_110_725
*1253 FILLER_110_737
*1254 FILLER_110_749
*1255 FILLER_110_755
*1256 FILLER_110_757
*1257 FILLER_110_769
*1258 FILLER_110_77
*1259 FILLER_110_781
*1260 FILLER_110_793
*1261 FILLER_110_805
*1262 FILLER_110_811
*1263 FILLER_110_813
*1264 FILLER_110_821
*1265 FILLER_110_83
*1266 FILLER_110_85
*1267 FILLER_110_97
*1268 FILLER_111_105
*1269 FILLER_111_111
*1270 FILLER_111_113
*1271 FILLER_111_125
*1272 FILLER_111_137
*1273 FILLER_111_149
*1274 FILLER_111_15
*1275 FILLER_111_161
*1276 FILLER_111_167
*1277 FILLER_111_169
*1278 FILLER_111_181
*1279 FILLER_111_193
*1280 FILLER_111_205
*1281 FILLER_111_217
*1282 FILLER_111_223
*1283 FILLER_111_225
*1284 FILLER_111_237
*1285 FILLER_111_249
*1286 FILLER_111_261
*1287 FILLER_111_27
*1288 FILLER_111_273
*1289 FILLER_111_279
*1290 FILLER_111_281
*1291 FILLER_111_293
*1292 FILLER_111_3
*1293 FILLER_111_305
*1294 FILLER_111_317
*1295 FILLER_111_329
*1296 FILLER_111_335
*1297 FILLER_111_337
*1298 FILLER_111_349
*1299 FILLER_111_361
*1300 FILLER_111_373
*1301 FILLER_111_385
*1302 FILLER_111_39
*1303 FILLER_111_391
*1304 FILLER_111_393
*1305 FILLER_111_405
*1306 FILLER_111_417
*1307 FILLER_111_429
*1308 FILLER_111_441
*1309 FILLER_111_447
*1310 FILLER_111_449
*1311 FILLER_111_461
*1312 FILLER_111_473
*1313 FILLER_111_485
*1314 FILLER_111_497
*1315 FILLER_111_503
*1316 FILLER_111_505
*1317 FILLER_111_51
*1318 FILLER_111_517
*1319 FILLER_111_529
*1320 FILLER_111_541
*1321 FILLER_111_55
*1322 FILLER_111_553
*1323 FILLER_111_559
*1324 FILLER_111_561
*1325 FILLER_111_57
*1326 FILLER_111_573
*1327 FILLER_111_585
*1328 FILLER_111_597
*1329 FILLER_111_609
*1330 FILLER_111_615
*1331 FILLER_111_617
*1332 FILLER_111_629
*1333 FILLER_111_641
*1334 FILLER_111_653
*1335 FILLER_111_665
*1336 FILLER_111_671
*1337 FILLER_111_673
*1338 FILLER_111_685
*1339 FILLER_111_69
*1340 FILLER_111_697
*1341 FILLER_111_709
*1342 FILLER_111_721
*1343 FILLER_111_727
*1344 FILLER_111_729
*1345 FILLER_111_741
*1346 FILLER_111_753
*1347 FILLER_111_765
*1348 FILLER_111_777
*1349 FILLER_111_783
*1350 FILLER_111_785
*1351 FILLER_111_797
*1352 FILLER_111_809
*1353 FILLER_111_81
*1354 FILLER_111_821
*1355 FILLER_111_93
*1356 FILLER_112_109
*1357 FILLER_112_121
*1358 FILLER_112_133
*1359 FILLER_112_139
*1360 FILLER_112_141
*1361 FILLER_112_15
*1362 FILLER_112_153
*1363 FILLER_112_165
*1364 FILLER_112_177
*1365 FILLER_112_189
*1366 FILLER_112_195
*1367 FILLER_112_197
*1368 FILLER_112_209
*1369 FILLER_112_221
*1370 FILLER_112_233
*1371 FILLER_112_245
*1372 FILLER_112_251
*1373 FILLER_112_253
*1374 FILLER_112_265
*1375 FILLER_112_27
*1376 FILLER_112_277
*1377 FILLER_112_289
*1378 FILLER_112_29
*1379 FILLER_112_3
*1380 FILLER_112_301
*1381 FILLER_112_307
*1382 FILLER_112_309
*1383 FILLER_112_321
*1384 FILLER_112_333
*1385 FILLER_112_345
*1386 FILLER_112_357
*1387 FILLER_112_363
*1388 FILLER_112_365
*1389 FILLER_112_377
*1390 FILLER_112_389
*1391 FILLER_112_401
*1392 FILLER_112_41
*1393 FILLER_112_413
*1394 FILLER_112_419
*1395 FILLER_112_421
*1396 FILLER_112_433
*1397 FILLER_112_445
*1398 FILLER_112_457
*1399 FILLER_112_469
*1400 FILLER_112_475
*1401 FILLER_112_477
*1402 FILLER_112_489
*1403 FILLER_112_501
*1404 FILLER_112_513
*1405 FILLER_112_525
*1406 FILLER_112_53
*1407 FILLER_112_531
*1408 FILLER_112_533
*1409 FILLER_112_545
*1410 FILLER_112_557
*1411 FILLER_112_569
*1412 FILLER_112_581
*1413 FILLER_112_587
*1414 FILLER_112_589
*1415 FILLER_112_601
*1416 FILLER_112_613
*1417 FILLER_112_625
*1418 FILLER_112_637
*1419 FILLER_112_643
*1420 FILLER_112_645
*1421 FILLER_112_65
*1422 FILLER_112_657
*1423 FILLER_112_669
*1424 FILLER_112_681
*1425 FILLER_112_693
*1426 FILLER_112_699
*1427 FILLER_112_701
*1428 FILLER_112_713
*1429 FILLER_112_725
*1430 FILLER_112_737
*1431 FILLER_112_749
*1432 FILLER_112_755
*1433 FILLER_112_757
*1434 FILLER_112_769
*1435 FILLER_112_77
*1436 FILLER_112_781
*1437 FILLER_112_793
*1438 FILLER_112_805
*1439 FILLER_112_811
*1440 FILLER_112_813
*1441 FILLER_112_821
*1442 FILLER_112_83
*1443 FILLER_112_85
*1444 FILLER_112_97
*1445 FILLER_113_105
*1446 FILLER_113_111
*1447 FILLER_113_113
*1448 FILLER_113_125
*1449 FILLER_113_137
*1450 FILLER_113_149
*1451 FILLER_113_15
*1452 FILLER_113_161
*1453 FILLER_113_167
*1454 FILLER_113_169
*1455 FILLER_113_181
*1456 FILLER_113_193
*1457 FILLER_113_205
*1458 FILLER_113_217
*1459 FILLER_113_223
*1460 FILLER_113_225
*1461 FILLER_113_237
*1462 FILLER_113_249
*1463 FILLER_113_261
*1464 FILLER_113_27
*1465 FILLER_113_273
*1466 FILLER_113_279
*1467 FILLER_113_281
*1468 FILLER_113_293
*1469 FILLER_113_3
*1470 FILLER_113_305
*1471 FILLER_113_317
*1472 FILLER_113_329
*1473 FILLER_113_335
*1474 FILLER_113_337
*1475 FILLER_113_349
*1476 FILLER_113_361
*1477 FILLER_113_373
*1478 FILLER_113_385
*1479 FILLER_113_39
*1480 FILLER_113_391
*1481 FILLER_113_393
*1482 FILLER_113_405
*1483 FILLER_113_417
*1484 FILLER_113_429
*1485 FILLER_113_441
*1486 FILLER_113_447
*1487 FILLER_113_449
*1488 FILLER_113_461
*1489 FILLER_113_473
*1490 FILLER_113_485
*1491 FILLER_113_497
*1492 FILLER_113_503
*1493 FILLER_113_505
*1494 FILLER_113_51
*1495 FILLER_113_517
*1496 FILLER_113_529
*1497 FILLER_113_541
*1498 FILLER_113_55
*1499 FILLER_113_553
*1500 FILLER_113_559
*1501 FILLER_113_561
*1502 FILLER_113_57
*1503 FILLER_113_573
*1504 FILLER_113_585
*1505 FILLER_113_597
*1506 FILLER_113_609
*1507 FILLER_113_615
*1508 FILLER_113_617
*1509 FILLER_113_629
*1510 FILLER_113_641
*1511 FILLER_113_653
*1512 FILLER_113_665
*1513 FILLER_113_671
*1514 FILLER_113_673
*1515 FILLER_113_685
*1516 FILLER_113_69
*1517 FILLER_113_697
*1518 FILLER_113_709